version 2
run Adhoc-24-20151012-16:52:14-35188
attr configname Adhoc
attr datetime 20151012-16:52:14
attr experiment Adhoc
attr inifile omnetpp.ini
attr iterationvars ""
attr iterationvars2 $repetition=24
attr measurement ""
attr network servicediscovery.Adhoc
attr processid 35188
attr repetition 24
attr replication #24
attr resultdir results
attr runnumber 24
attr seedset 24

