version 2
run Adhoc-15-20151012-16:51:24-67536
attr configname Adhoc
attr datetime 20151012-16:51:24
attr experiment Adhoc
attr inifile omnetpp.ini
attr iterationvars ""
attr iterationvars2 $repetition=15
attr measurement ""
attr network servicediscovery.Adhoc
attr processid 67536
attr repetition 15
attr replication #15
attr resultdir results
attr runnumber 15
attr seedset 15

