version 2
run Adhoc-17-20151012-16:51:33-40476
attr configname Adhoc
attr datetime 20151012-16:51:33
attr experiment Adhoc
attr inifile omnetpp.ini
attr iterationvars ""
attr iterationvars2 $repetition=17
attr measurement ""
attr network servicediscovery.Adhoc
attr processid 40476
attr repetition 17
attr replication #17
attr resultdir results
attr runnumber 17
attr seedset 17

