version 2
run Adhoc-9-20151012-16:50:56-50128
attr configname Adhoc
attr datetime 20151012-16:50:56
attr experiment Adhoc
attr inifile omnetpp.ini
attr iterationvars ""
attr iterationvars2 $repetition=9
attr measurement ""
attr network servicediscovery.Adhoc
attr processid 50128
attr repetition 9
attr replication #9
attr resultdir results
attr runnumber 9
attr seedset 9

