version 2
run Adhoc-5-20151012-16:50:35-11284
attr configname Adhoc
attr datetime 20151012-16:50:35
attr experiment Adhoc
attr inifile omnetpp.ini
attr iterationvars ""
attr iterationvars2 $repetition=5
attr measurement ""
attr network servicediscovery.Adhoc
attr processid 11284
attr repetition 5
attr replication #5
attr resultdir results
attr runnumber 5
attr seedset 5

